Version 4
SHEET 1 880 680
SYMBOL Opamps\\opamp2 208 96 R0
SYMATTR InstName U1
SYMATTR Value LMX58_LM2904
SYMBOL res 0 176 R0
SYMATTR InstName R1
SYMBOL cap -16 64 R0
SYMATTR InstName C1
TEXT 224 216 Left 2 !.lib LMx58_LM2904.CIR
